10
Coordinates from ORCA-job acetone-opthess
   C  -0.0000     -0.0002      0.0579 C_CO     0.778   0.1050 3.750
   O  -0.0000     -0.0002      1.2607 O_CO    -0.584   0.2100 3.960
   C   1.2677     -0.1587     -0.7357 C_CH3   -0.526   0.0660 3.500
   C  -1.2677      0.1585     -0.7357 C_CH3   -0.526   0.0660 3.500
   H   1.1608     -0.9335     -1.4961 H_CH3    0.143   0.0300 2.500
   H   1.4827      0.7710     -1.2683 H_CH3    0.143   0.0300 2.500
   H   2.0966     -0.3974     -0.0738 H_CH3    0.143   0.0300 2.500
   H  -1.1610      0.9345     -1.4945 H_CH3    0.143   0.0300 2.500
   H  -1.4821     -0.7702     -1.2701 H_CH3    0.143   0.0300 2.500
   H  -2.0968      0.3952     -0.0735 H_CH3    0.143   0.0300 2.500
